/*--------------------------------*- C++ -*----------------------------------*\
| =========                 |                                                 |
| \\      /  F ield         | OpenFOAM: The Open Source CFD Toolbox           |
|  \\    /   O peration     | Version:  4.x                                   |
|   \\  /    A nd           | Web:      www.OpenFOAM.org                      |
|    \\/     M anipulation  |                                                 |
\*---------------------------------------------------------------------------*/
FoamFile
{
    version     2.0;
    format      ascii;
    class       dictionary;
    object      MRFProperties;
}
// * * * * * * * * * * * * * * * * * * * * * * * * * * * * * * * * * * * * * //

MRF1
{
    cellZone    rotating;
    active      yes;

    initRelativeVelocity yes;

    // Fixed patches (by default they 'move' with the MRF zone)
    nonRotatingPatches ( walls interface-rotating );

    origin    (0 0 0);
    axis      (0 0 1);
    omega     209.4396;
}

// ************************************************************************* //
