FoamFile
{
	version	2.0;
	class	dictionary;
	format	ascii;
	location	"system";
	object	blockMeshDict;
}
convertToMeters	1;
edges	
(
);
vertices	
(
	(-75.75 -75.75 -20.6)
	(75.75 -75.75 -20.6)
	(75.75 75.75 -20.6)
	(-75.75 75.75 -20.6)
	(-75.75 -75.75 100.6)
	(75.75 -75.75 100.6)
	(75.75 75.75 100.6)
	(-75.75 75.75 100.6)
);
blocks	
(
	hex (0 1 2 3 4 5 6 7) (20 20 18) simpleGrading (1.0 1.0 1.0)
);
boundary	
(
		boundaries
	{
		type patch;
		faces
		(
			(2 6 5 1)
			(3 7 6 2)
			(4 5 6 7)
			(0 4 7 3)
			(1 5 4 0)
			(0 3 2 1)
		);
	}

);
