/*--------------------------------*- C++ -*----------------------------------*\
| =========                 |                                                 |
| \\      /  F ield         | OpenFOAM: The Open Source CFD Toolbox           |
|  \\    /   O peration     | Version:  4.x                                   |
|   \\  /    A nd           | Web:      www.OpenFOAM.org                      |
|    \\/     M anipulation  |                                                 |
\*---------------------------------------------------------------------------*/
FoamFile
{
    version     2.0;
    format      ascii;
    class       dictionary;
    object      forceCoeffsDict;
}
// * * * * * * * * * * * * * * * * * * * * * * * * * * * * * * * * * * * * * //

forceCoeffs
{
    type        forceCoeffs;

    functionObjectLibs ( "libforces.so" );

    writeControl   timeStep;
    writeInterval    1;

    log         yes;

    patches     ( wall );
    rho         rhoInf;
    rhoInf      1;
    liftDir     (0 1 0);
    dragDir     (1 0 0);
    CofR        (0 0 0);  
    pitchAxis   (0 0 1);
    magUInf     1;
    lRef        1;
    Aref        5.385164;       
}

// ************************************************************************* //
